/*--------------------------------*- C++ -*----------------------------------*\
  =========                 |
  \\      /  F ield         | OpenFOAM: The Open Source CFD Toolbox
   \\    /   O peration     | Website:  https://openfoam.org
    \\  /    A nd           | Version:  6
     \\/     M anipulation  |
\*---------------------------------------------------------------------------*/

FoamFile
{
    version     2.0;
    format      ascii;
    class       dictionary;
    location    "system";
    object      controlDict;
}

// * * * * * * * * * * * * * * * * * * * * * * * * * * * * * * * * * * * * * //

  application       superDeliciousVanilla;

  libs              ("libSOWFAboundaryConditions.so" "libSOWFAincompressibleTurbulenceModels.so");

  isRestart         false;

  startFrom         startTime;

  startTime         18000.0;

  stopAt            endTime;

//endTime           19990.0;
  endTime           32000.0;

//deltaT            3.333333333333;
  deltaT            0.25;

  writeControl      adjustableRunTime;

//writeInterval     5000.0; 
  writeInterval     600.0; 

  purgeWrite        0;

  writeFormat       binary;

  writePrecision    12;

  writeCompression  uncompressed;

  timeFormat        general;

  timePrecision     12;

  runTimeModifiable yes;

  adjustTimeStep    no;

  maxCo             0.75;

  maxDeltaT         25.0;

functions
  {
      #include "sampling/temporalAverages"
      #include "sampling/slices"
      #include "sampling/slicesMean"
      #include "sampling/probeData.0"
      #include "sampling/probeData.1"
      #include "sampling/probeData.2"
      #include "sampling/probeData.3"
      #include "sampling/probeData.4"
      #include "sampling/probeData.5"
      #include "sampling/probeData.6"
      #include "sampling/probeData.7"
      #include "sampling/probeData.8"
      #include "sampling/probeData.9"
      #include "sampling/probeData.10"
      #include "sampling/probeData.11"
      #include "sampling/probeData.12"
      #include "sampling/probeData.13"
      #include "sampling/probeData.14"
      #include "sampling/probeData.15"
      #include "sampling/probeData.16"
      #include "sampling/probeData.17"
      #include "sampling/probeData.18"
      #include "sampling/probeData.19"
      #include "sampling/probeData.20"
      #include "sampling/probeData.21"
      #include "sampling/probeData.22"
      #include "sampling/probeData.23"
      #include "sampling/probeData.24"
      #include "sampling/probeData.25"
      #include "sampling/probeData.26"
      #include "sampling/probeData.27"
      #include "sampling/probeData.28"
      #include "sampling/probeData.29"
      #include "sampling/probeData.30"
      #include "sampling/probeData.31"
      #include "sampling/probeData.32"
      #include "sampling/probeData.33"
      #include "sampling/probeData.34"
      #include "sampling/probeData.35"
      #include "sampling/probeData.36"
      #include "sampling/probeData.37"
      #include "sampling/probeData.38"
      #include "sampling/probeData.39"
      #include "sampling/probeData.40"
      #include "sampling/probeData_l.0"
      #include "sampling/probeData_l.1"
      #include "sampling/probeData_l.2"
      #include "sampling/probeData_l.3"
      #include "sampling/probeData_l.4"
      #include "sampling/probeData_l.5"
      #include "sampling/probeData_l.6"
      #include "sampling/probeData_l.7"
      #include "sampling/probeData_l.8"
      #include "sampling/probeData_l.9"
      #include "sampling/probeData_l.10"
  }

// ************************************************************************* //

