/*--------------------------------*- C++ -*----------------------------------*\
  =========                 |
  \\      /  F ield         | OpenFOAM: The Open Source CFD Toolbox
   \\    /   O peration     | Website:  https://openfoam.org
    \\  /    A nd           | Version:  6
     \\/     M anipulation  |
\*---------------------------------------------------------------------------*/

FoamFile
{
    version     2.0;
    format      ascii;
    class       dictionary;
    location    "system";
    object      fvSchemes;
}

// * * * * * * * * * * * * * * * * * * * * * * * * * * * * * * * * * * * * * //

ddtSchemes
{
    default                        backward;
//  default                        Euler;
//  default                        CrankNicolson 1.0;
}

gradSchemes
{
    default                        Gauss linear;
    grad(U)                        Gauss linear;
}

divSchemes
{
    default                        Gauss linear;
  //div(phi,U)                     Gauss linear;
  //div(phi,U)                     Gauss upwind;
  //div(phi,T)                     Gauss linear;
    div(phi,U)                     Gauss localBlended midPoint upwind;
    div(phi,T)                     Gauss localBlended midPoint upwind;
  //div(phi,U)                     Gauss localBlended linear upwind;
  //div(phi,T)                     Gauss localBlended linear upwind;
  //div(phi,U)                     Gauss localBlended linear linearUpwind grad(U);
  //div(phi,T)                     Gauss localBlended linear linearUpwind grad(T);
    div(R)                         Gauss linear;
    div(U)                         Gauss linear;
    div((nuEff*dev(grad(U).T())))  Gauss linear;
    div(B)                         Gauss linear;
    div(phi,B)                     Gauss linear;
  //div(phi,k)                     Gauss linearUpwind grad(k);
    div(phi,k)                     Gauss blended 0.8 linear linearUpwind grad(k);
}

laplacianSchemes
{
    default                        Gauss linear corrected;
    laplacian(rUA,p)               Gauss linear corrected;
    laplacian((1|A(U)),p)          Gauss linear corrected;
    laplacian(interpolate((1|A(U))),p) Gauss linear corrected;
    laplacian(interpolate((1|A(U))),pd) Gauss linear corrected;
    laplacian(nu,U)                Gauss linear corrected;
    laplacian(nuEff,U)             Gauss linear corrected;
    laplacian(kappaEff,T)          Gauss linear corrected;
    laplacian(DBEff,B)             Gauss linear corrected;
    laplacian(nuSgs,U)             Gauss linear corrected;
}

interpolationSchemes
{
    default                        linear;
}

snGradSchemes
{
    default                        corrected;
}

fluxRequired
{
    default                        no;
    p_rgh                            ;
}

wallDist
{
     method                        meshWave;
}

schemeBlending
{

    // Table of blending factors vs. cell face size.
    faceSizeBlendingTable
    (
    // area          U        T
        (100        0.990  0.975 )
        (6400       0.990  0.975 )
    );


    // Height above which blending factor begins to transition
    // from heightBlendingFactor_z1 to heightBlendingFactor_z2.
    heightBlending_z1            900.0;

    // Height above which blending factor is heightBlendingFactor_z2.
    heightBlending_z2            1200.0;


    heightBlendingFactorU_z1     1.0;
    heightBlendingFactorU_z2     0.9;

    heightBlendingFactorT_z1     1.0;
    heightBlendingFactorT_z2     0.9;


    // In calculating height, use wall distance or absolute distance.
    useWallDistZ                 false;
}

// ************************************************************************* //
