/*--------------------------------*- C++ -*----------------------------------*\
| =========                 |                                                 |
| \\      /  F ield         | OpenFOAM: The Open Source CFD Toolbox           |
|  \\    /   O peration     | Version:  2.0.x                                 |
|   \\  /    A nd           | Web:      www.OpenFOAM.org                      |
|    \\/     M anipulation  |                                                 |
\*---------------------------------------------------------------------------*/

FoamFile
{
    version     2.0;
    format      ascii;
    class       dictionary;
    object      turbineProperties;
}
// * * * * * * * * * * * * * * * * * * * * * * * * * * * * * * * * * * * * * //

globalProperties
{
    outputControl                    "timeStep";
//  outputControl                    "runTime";
    outputInterval                    10;
    
    dryRun                            false;
    restart                           true;

    superControllerOn                 false;
    superControllerLib               "libScontroller.so";
    numSuperControllerInputs          4;
    numSuperControllerOutputs         2;

    timeSimulationStart            0.0;
    timeSimulationEnd              1000.0;

    checkPointInterval              50000;    
}
