/*--------------------------------*- C++ -*----------------------------------*\
  =========                 |
  \\      /  F ield         | OpenFOAM: The Open Source CFD Toolbox
   \\    /   O peration     | Website:  https://openfoam.org
    \\  /    A nd           | Version:  6
     \\/     M anipulation  |
\*---------------------------------------------------------------------------*/
FoamFile
{
    version     2.0;
    format      ascii;
    class       dictionary;
    object      topoSetDict;
}

// * * * * * * * * * * * * * * * * * * * * * * * * * * * * * * * * * * * * * //

#include "../../setUp"

actions
(
    {
        name    lower.2.2;
        type    faceSet;
        action  new;
        source  boxToFace;
        sourceInfo
        {
            box (#calc "$xMin2 + 5040.0" $yMin2 #calc "$zMin1 - 1.0") ($xMax2 $yMax2 #calc "$zMin1 + 1.0");
        }
    }
);


// ************************************************************************* //
